6

C       1.1793501531     0.1997297036     0.0000000000
F      -1.1529022759     0.2247768549     0.0000000000
C       0.0163188924    -0.4355678917     0.0000000000
H      -0.1189529826    -1.5078994676     0.0000000000
H       1.2308255218     1.2785613540     0.0000000000
H       2.0902345342    -0.3786192262     0.0000000000



